Circuit: *** SPICE deck for cell deep{lay} from library deep

Ignoring BSIM parameter XL
Ignoring BSIM parameter XW
Ignoring BSIM parameter XL
Ignoring BSIM parameter XW

Date: Thu Nov 02 11:50:44 2023
Total elapsed time: 0.704 seconds.

tnom = 27
temp = 27
method = trap
totiter = 36007
traniter = 0
tranpoints = 0
accept = 0
rejected = 0
matrix size = 13
fillins = 4
solver = Normal
Matrix Compiler1: 754 bytes object code size  0.4/0.3/[0.2]
Matrix Compiler2: 1.00 KB object code size  0.3/0.4/[0.2]

