Circuit: *** SPICE deck for cell inverter_deepak{lay} from library inverter_deepak

Ignoring BSIM parameter XL
Ignoring BSIM parameter XW
Ignoring BSIM parameter XL
Ignoring BSIM parameter XW
Direct Newton iteration for .op point succeeded.

Date: Thu Nov 02 11:55:34 2023
Total elapsed time: 0.703 seconds.

tnom = 27
temp = 27
method = modified trap
totiter = 3018
traniter = 3011
tranpoints = 1458
accept = 1370
rejected = 88
matrix size = 12
fillins = 4
solver = Normal
Matrix Compiler1: 722 bytes object code size  1.0/0.7/[0.5]
Matrix Compiler2: 948 bytes object code size  0.6/1.0/[0.6]

