Circuit: *** SPICE deck for cell inverter_deepak{lay} from library inverter_deepak

Ignoring BSIM parameter XL
Ignoring BSIM parameter XW
Ignoring BSIM parameter XL
Ignoring BSIM parameter XW

Date: Wed Nov 01 11:43:54 2023
Total elapsed time: 0.846 seconds.

tnom = 27
temp = 27
method = trap
totiter = 36007
traniter = 0
tranpoints = 0
accept = 0
rejected = 0
matrix size = 12
fillins = 4
solver = Normal
Matrix Compiler1: 722 bytes object code size  0.5/0.3/[0.2]
Matrix Compiler2: 948 bytes object code size  0.3/0.4/[0.2]

